Version 4
SHEET 1 1728 680
WIRE 304 -1024 304 -1072
WIRE 1008 -1024 1008 -1072
WIRE 656 -960 656 -1008
WIRE 656 -960 480 -960
WIRE 832 -960 656 -960
WIRE 480 -912 480 -960
WIRE 832 -912 832 -960
WIRE 304 -896 304 -944
WIRE 432 -896 304 -896
WIRE 1008 -896 1008 -944
WIRE 1008 -896 880 -896
WIRE 304 -848 304 -896
WIRE 1008 -848 1008 -896
WIRE 256 -768 176 -768
WIRE 1136 -768 1056 -768
WIRE 480 -752 480 -816
WIRE 608 -752 480 -752
WIRE 832 -752 832 -816
WIRE 832 -752 704 -752
WIRE 304 -720 304 -752
WIRE 1008 -720 1008 -752
WIRE 176 -688 176 -768
WIRE 928 -688 176 -688
WIRE 480 -640 480 -752
WIRE 624 -640 480 -640
WIRE 832 -640 832 -752
WIRE 832 -640 688 -640
WIRE 1136 -592 1136 -768
WIRE 1136 -592 384 -592
WIRE 480 -576 480 -640
WIRE 832 -576 832 -640
WIRE 256 -496 192 -496
WIRE 384 -496 384 -592
WIRE 384 -496 336 -496
WIRE 432 -496 384 -496
WIRE 928 -496 928 -688
WIRE 928 -496 880 -496
WIRE 976 -496 928 -496
WIRE 1120 -496 1056 -496
WIRE 384 -448 384 -496
WIRE 928 -448 928 -496
WIRE 1120 -448 1120 -496
WIRE 480 -432 480 -480
WIRE 656 -432 480 -432
WIRE 832 -432 832 -480
WIRE 832 -432 656 -432
WIRE 656 -352 656 -432
WIRE 384 -336 384 -368
WIRE 928 -336 928 -368
WIRE 656 -288 656 -352
WIRE 768 -208 704 -208
WIRE 976 -208 848 -208
WIRE 1168 -208 976 -208
WIRE 1312 -208 1168 -208
WIRE 976 -144 976 -208
WIRE 656 -80 656 -192
WIRE 1168 -32 1168 -80
WIRE 656 0 656 -80
WIRE 768 0 656 0
WIRE 976 0 976 -64
WIRE 976 0 848 0
WIRE 1088 0 976 0
WIRE 64 16 64 -32
WIRE 1312 16 1312 -208
WIRE 1312 16 1248 16
WIRE 1088 32 976 32
WIRE 656 48 656 0
WIRE 1168 112 1168 64
WIRE 64 128 64 96
WIRE 848 128 816 128
WIRE 976 128 976 32
WIRE 976 128 928 128
WIRE 656 160 656 128
WIRE -416 176 -416 144
WIRE 976 176 976 128
WIRE 976 288 976 256
FLAG 656 160 0
FLAG -416 176 0
FLAG 64 128 0
FLAG 976 288 0
FLAG 1168 -208 Vout
FLAG 656 -80 Vs
FLAG 384 -336 0
FLAG 928 -336 0
FLAG 64 -32 +5V
FLAG 656 -1008 +5V
FLAG 816 128 +5V
FLAG 1168 112 0
FLAG 1168 -80 +5V
FLAG 656 -352 Vmos
FLAG 304 -720 0
FLAG 1008 -720 0
FLAG 304 -1072 +5V
FLAG 1008 -1072 +5V
FLAG 1120 -448 0
FLAG 192 -496 +5V
SYMBOL res 640 32 R0
SYMATTR InstName R1
SYMATTR Value 0.1
SYMBOL res 864 -16 R90
WINDOW 0 0 56 VBottom 2
WINDOW 3 32 56 VTop 2
SYMATTR InstName R2
SYMATTR Value 3k9
SYMBOL res 992 -48 R180
WINDOW 0 36 76 Left 2
WINDOW 3 36 40 Left 2
SYMATTR InstName R3
SYMATTR Value 220k
SYMBOL res 944 112 R90
WINDOW 0 0 56 VBottom 2
WINDOW 3 32 56 VTop 2
SYMATTR InstName R4
SYMATTR Value 220k
SYMBOL res 960 160 R0
SYMATTR InstName R5
SYMATTR Value 7k8
SYMBOL AutoGenerated\\LM358 1136 16 R0
WINDOW 0 78 -48 Bottom 2
WINDOW 3 94 45 Top 2
SYMATTR InstName U1
SYMBOL voltage 64 0 R0
WINDOW 3 47 52 Left 2
WINDOW 123 0 0 Left 0
WINDOW 39 0 0 Left 0
SYMATTR Value 5V
SYMATTR InstName V2
SYMBOL voltage -416 48 R0
WINDOW 3 -268 101 Left 2
WINDOW 123 0 0 Left 0
WINDOW 39 0 0 Left 0
SYMATTR Value PULSE(0 5 0 5 0 0 5)
SYMATTR InstName V1
SYMBOL AutoGenerated\\AO3400 720 -240 M0
WINDOW 0 119 -3 Bottom 2
WINDOW 3 119 -2 Top 2
SYMATTR InstName U2
SYMBOL res 752 -224 M90
WINDOW 0 0 56 VBottom 2
WINDOW 3 32 56 VTop 2
SYMATTR InstName R6
SYMATTR Value 100
SYMBOL AutoGenerated\\irf7307n 480 -528 R0
SYMATTR InstName U3
SYMBOL AutoGenerated\\irf7307n 832 -528 M0
SYMATTR InstName U4
SYMBOL AutoGenerated\\irf7307p 480 -864 M180
SYMATTR InstName U5
SYMBOL AutoGenerated\\irf7307p 832 -864 R180
SYMATTR InstName U6
SYMBOL res 352 -512 R90
WINDOW 0 0 56 VBottom 2
WINDOW 3 32 56 VTop 2
SYMATTR InstName R7
SYMATTR Value 100
SYMBOL res 368 -464 R0
SYMATTR InstName R8
SYMATTR Value 10k
SYMBOL res 1072 -512 R90
WINDOW 0 0 56 VBottom 2
WINDOW 3 32 56 VTop 2
SYMATTR InstName R9
SYMATTR Value 100
SYMBOL res 912 -464 R0
SYMATTR InstName R10
SYMATTR Value 10k
SYMBOL cap 688 -656 R90
WINDOW 0 0 32 VBottom 2
WINDOW 3 32 32 VTop 2
SYMATTR InstName C1
SYMATTR Value 10n
SYMBOL AutoGenerated\\AO3400 1072 -800 M0
WINDOW 0 119 -3 Bottom 2
WINDOW 3 119 -2 Top 2
SYMATTR InstName U7
SYMBOL AutoGenerated\\AO3400 240 -800 R0
WINDOW 0 119 -3 Bottom 2
WINDOW 3 119 -2 Top 2
SYMATTR InstName U8
SYMBOL res 288 -1040 R0
SYMATTR InstName R12
SYMATTR Value 10k
SYMBOL res 992 -1040 R0
SYMATTR InstName R13
SYMATTR Value 10k
SYMBOL AutoGenerated\\motor 656 -752 M90
WINDOW 0 -32 0 VBottom 2
WINDOW 3 32 0 VTop 2
SYMATTR InstName U9
TEXT -160 -8 Left 2 !.tran 100us uic
