Version 4
SHEET 1 1252 680
WIRE -112 -208 -128 -208
WIRE -16 -208 -32 -208
WIRE 80 -208 64 -208
WIRE 80 -160 80 -208
WIRE -128 -112 -128 -208
WIRE 80 -96 80 -160
WIRE 400 -16 128 -16
WIRE 816 -16 480 -16
WIRE 80 80 80 0
WIRE 144 80 80 80
WIRE 224 80 144 80
WIRE 448 80 304 80
WIRE 608 80 448 80
WIRE 816 80 816 -16
WIRE 816 80 688 80
WIRE -128 112 -128 -112
WIRE 80 112 80 80
WIRE -128 224 -128 192
WIRE 80 224 80 192
WIRE 256 272 80 272
WIRE 624 272 256 272
WIRE 256 320 256 272
WIRE 816 336 816 80
WIRE 624 384 624 272
WIRE 448 416 448 80
WIRE 544 416 448 416
WIRE 816 432 816 336
WIRE 816 432 704 432
WIRE 80 448 80 272
WIRE 256 448 256 400
WIRE 544 448 256 448
WIRE 256 496 256 448
WIRE 80 560 80 528
WIRE 256 608 256 576
WIRE 624 608 624 480
FLAG 80 224 0
FLAG -128 224 0
FLAG 624 608 0
FLAG 80 560 0
FLAG 256 608 0
FLAG 816 336 Vout
FLAG 144 80 Vs
FLAG -128 -112 Vcc
FLAG 80 -160 Vmos
SYMBOL res 64 96 R0
SYMATTR InstName R1
SYMATTR Value 0.1
SYMBOL res 320 64 R90
WINDOW 0 0 56 VBottom 2
WINDOW 3 32 56 VTop 2
SYMATTR InstName R2
SYMATTR Value 3k9
SYMBOL res 704 64 R90
WINDOW 0 0 56 VBottom 2
WINDOW 3 32 56 VTop 2
SYMATTR InstName R3
SYMATTR Value 220k
SYMBOL res 240 304 R0
SYMATTR InstName R4
SYMATTR Value 220k
SYMBOL res 240 480 R0
SYMATTR InstName R5
SYMATTR Value 7k8
SYMBOL AutoGenerated\\LM358 592 432 R0
WINDOW 0 78 -48 Bottom 2
WINDOW 3 94 45 Top 2
SYMATTR InstName U1
SYMBOL voltage 80 432 R0
WINDOW 3 47 52 Left 2
WINDOW 123 0 0 Left 0
WINDOW 39 0 0 Left 0
SYMATTR Value 5V
SYMATTR InstName V2
SYMBOL voltage -128 96 R0
WINDOW 3 -268 101 Left 2
WINDOW 123 0 0 Left 0
WINDOW 39 0 0 Left 0
SYMATTR Value PULSE(0 5 0 5 0 0 5)
SYMATTR InstName V1
SYMBOL AutoGenerated\\AO3400 144 -48 M0
SYMATTR InstName U2
SYMBOL res 384 -32 M90
WINDOW 0 0 56 VBottom 2
WINDOW 3 32 56 VTop 2
SYMATTR InstName R6
SYMATTR Value 1k
SYMBOL res -16 -224 R90
WINDOW 0 0 56 VBottom 2
WINDOW 3 32 56 VTop 2
SYMATTR InstName R7
SYMATTR Value 2.4
SYMBOL res 80 -224 R90
WINDOW 0 0 56 VBottom 2
WINDOW 3 32 56 VTop 2
SYMATTR InstName R8
SYMATTR Value 0.3
TEXT -464 344 Left 2 !.tran 10s uic
